 .Sol file Watershed HRU:76 Subbasin:8 HRU:3 Luse:URHD Soil: 15 Slope: 0-10.0 10/24/2022 12:00:00 AM ArcSWAT 2012.10_7.23
 Soil Name: 15
 Soil Hydrologic Group: D
 Maximum rooting depth(mm) :    0.00
 Porosity fraction from which anions are excluded: 0.500
 Crack volume potential of soil: 0.500
 Texture 1                : C
 Depth                [mm]:      100.00
 Bulk Density Moist [g/cc]:        2.50
 Ave. AW Incl. Rock Frag  :        0.00
 Ksat. (est.)      [mm/hr]:        0.01
 Organic Carbon [weight %]:        0.00
 Clay           [weight %]:        0.00
 Silt           [weight %]:        0.00
 Sand           [weight %]:        0.00
 Rock Fragments   [vol. %]:        0.00
 Soil Albedo (Moist)      :        0.00
 Erosion K                :        0.00
 Salinity (EC, Form 5)    :        0.00
 Soil pH                  :        0.00
 Soil CACO3               :        0.00
                              
