 .Sol file Watershed HRU:56 Subbasin:6 HRU:10 Luse:FRSE Soil: 6 Slope: 0-10.0 10/24/2022 12:00:00 AM ArcSWAT 2012.10_7.23
 Soil Name: 6
 Soil Hydrologic Group: C
 Maximum rooting depth(mm) : 1400.00
 Porosity fraction from which anions are excluded: 0.500
 Crack volume potential of soil: 0.500
 Texture 1                : C
 Depth                [mm]:      250.00      460.00      600.00
 Bulk Density Moist [g/cc]:        1.38        1.33        1.38
 Ave. AW Incl. Rock Frag  :        0.12        0.12        0.12
 Ksat. (est.)      [mm/hr]:       21.08        0.71       29.94
 Organic Carbon [weight %]:        4.29        1.63        3.86
 Clay           [weight %]:       21.30       52.00       16.90
 Silt           [weight %]:       21.00       22.50       27.30
 Sand           [weight %]:       58.00       22.50       55.80
 Rock Fragments   [vol. %]:        0.00        0.00        0.00
 Soil Albedo (Moist)      :        0.00        0.00        0.00
 Erosion K                :        0.08        0.08        0.08
 Salinity (EC, Form 5)    :        0.00        0.00        0.00
 Soil pH                  :        0.00        0.00        0.00
 Soil CACO3               :        0.00        0.00        0.00
                              
