 .Sol file Watershed HRU:132 Subbasin:9 HRU:33 Luse:AGRL Soil: 14 Slope: 25.0-50.0 4/2/2022 12:00:00 AM ArcSWAT 2012.10_7.23
 Soil Name: 14
 Soil Hydrologic Group: C
 Maximum rooting depth(mm) :  570.00
 Porosity fraction from which anions are excluded: 0.500
 Crack volume potential of soil: 0.500
 Texture 1                : C
 Depth                [mm]:      310.00      570.00
 Bulk Density Moist [g/cc]:        1.44        1.44
 Ave. AW Incl. Rock Frag  :        0.12        0.12
 Ksat. (est.)      [mm/hr]:       16.90        1.27
 Organic Carbon [weight %]:        3.07        1.33
 Clay           [weight %]:       21.60       41.70
 Silt           [weight %]:       24.70       20.00
 Sand           [weight %]:       53.70       38.30
 Rock Fragments   [vol. %]:        0.00        0.00
 Soil Albedo (Moist)      :        0.03        0.03
 Erosion K                :        0.16        0.16
 Salinity (EC, Form 5)    :        0.00        0.00
 Soil pH                  :        0.00        0.00
 Soil CACO3               :        0.00        0.00
                              
