 .Sol file Watershed HRU:61 Subbasin:6 HRU:17 Luse:URHD Soil: 13 Slope: 25.0-50.0 4/2/2022 12:00:00 AM ArcSWAT 2012.10_7.23
 Soil Name: 13
 Soil Hydrologic Group: C
 Maximum rooting depth(mm) :  350.00
 Porosity fraction from which anions are excluded: 0.500
 Crack volume potential of soil: 0.500
 Texture 1                : C
 Depth                [mm]:      140.00      200.00      350.00
 Bulk Density Moist [g/cc]:        1.10        1.08        1.25
 Ave. AW Incl. Rock Frag  :        0.13        0.13        0.10
 Ksat. (est.)      [mm/hr]:       65.03       77.67       64.28
 Organic Carbon [weight %]:       14.13        8.70        3.15
 Clay           [weight %]:       14.00       12.00       12.00
 Silt           [weight %]:       22.00       24.00       16.00
 Sand           [weight %]:       64.00       64.00       72.00
 Rock Fragments   [vol. %]:        0.00        0.00        0.00
 Soil Albedo (Moist)      :        0.26        0.26        0.26
 Erosion K                :        0.36        0.36        0.36
 Salinity (EC, Form 5)    :        0.00        0.00        0.00
 Soil pH                  :        0.00        0.00        0.00
 Soil CACO3               :        0.00        0.00        0.00
                              
