 .Sol file Watershed HRU:94 Subbasin:9 HRU:9 Luse:FRSE Soil: 5 Slope: 25.0-50.0 10/24/2022 12:00:00 AM ArcSWAT 2012.10_7.23
 Soil Name: 5
 Soil Hydrologic Group: C
 Maximum rooting depth(mm) : 1200.00
 Porosity fraction from which anions are excluded: 0.500
 Crack volume potential of soil: 0.500
 Texture 1                : C
 Depth                [mm]:      600.00     1200.00
 Bulk Density Moist [g/cc]:        1.63        1.59
 Ave. AW Incl. Rock Frag  :        0.10        0.11
 Ksat. (est.)      [mm/hr]:       15.17       28.37
 Organic Carbon [weight %]:        0.01        0.70
 Clay           [weight %]:       17.00       12.00
 Silt           [weight %]:       29.00       31.00
 Sand           [weight %]:       54.00       57.00
 Rock Fragments   [vol. %]:        0.00        0.00
 Soil Albedo (Moist)      :        0.00        0.00
 Erosion K                :        0.84        0.84
 Salinity (EC, Form 5)    :        0.00        0.00
 Soil pH                  :        0.00        0.00
 Soil CACO3               :        0.00        0.00
                              
