 .Wgn file Subbasin: 5 STATION NAME:61n756w 10/24/2022 12:00:00 AM ArcSWAT 2012.10_7.23
  LATITUDE =   6.09 LONGITUDE = -75.63
  ELEV [m] =1960.00
  RAIN_YRS =  32.00
 24.25 24.40 24.05 23.65 24.46 25.71 26.19 26.63 26.13 24.20 23.01 23.57
 10.61 11.79 12.46 13.16 12.20 10.54  9.42  9.73 10.63 11.31 12.04 11.12
  3.67  4.10  4.17  3.65  3.22  1.89  1.49  1.67  2.46  3.43  3.45  3.31
  2.84  2.64  2.20  1.71  1.78  1.70  1.83  1.80  1.92  2.56  2.21  2.65
  87.8 133.5 212.9 288.1 223.0 102.1  70.1  80.2 126.1 200.7 211.6 152.0
  5.11  7.83  8.54  9.98  7.66  4.56  4.50  3.86  5.42  7.35  8.48  7.16
  4.55  5.02  3.07  2.70  2.70  2.71  6.67  3.10  4.85  2.58  3.50  3.52
  0.23  0.36  0.47  0.68  0.62  0.38  0.32  0.35  0.49  0.57  0.53  0.26
  0.45  0.46  0.48  0.48  0.48  0.44  0.41  0.43  0.45  0.47  0.49  0.47
 17.41 20.28 26.00 27.50 27.59 20.25 16.59 18.69 22.56 26.72 26.69 22.03
 21.04 29.20 24.40 32.57 23.19 15.35 20.06 11.92 29.05 19.13 26.59 25.37
 19.19 19.39 18.74 17.89 19.59 23.25 25.08 25.18 23.74 19.82 16.62 17.76
  0.81  0.82  0.85  0.86  0.84  0.78  0.75  0.75  0.78  0.84  0.87  0.85
  1.00  1.01  0.96  0.94  0.99  1.16  1.28  1.21  1.08  0.99  0.92  0.94
