 .Sol file Watershed HRU:49 Subbasin:6 HRU:3 Luse:FRSE Soil: 12 Slope: 75.0-9999 10/24/2022 12:00:00 AM ArcSWAT 2012.10_7.23
 Soil Name: 12
 Soil Hydrologic Group: C
 Maximum rooting depth(mm) : 1400.00
 Porosity fraction from which anions are excluded: 0.500
 Crack volume potential of soil: 0.500
 Texture 1                : C
 Depth                [mm]:      600.00     1400.00
 Bulk Density Moist [g/cc]:        1.12        1.02
 Ave. AW Incl. Rock Frag  :        0.14        0.12
 Ksat. (est.)      [mm/hr]:       82.25      136.90
 Organic Carbon [weight %]:        6.57       15.15
 Clay           [weight %]:        9.20        5.20
 Silt           [weight %]:       34.00       20.00
 Sand           [weight %]:       56.80       74.80
 Rock Fragments   [vol. %]:        0.00        0.00
 Soil Albedo (Moist)      :        0.26        0.26
 Erosion K                :        0.49        0.49
 Salinity (EC, Form 5)    :        0.00        0.00
 Soil pH                  :        0.00        0.00
 Soil CACO3               :        0.00        0.00
                              
