 .sdr file Watershed HRU:143 Subbasin:11 HRU:19 Luse:RNGB Soil: 12 Slope 50.0-75.0 10/24/2022 12:00:00 AM ArcSWAT 2012.10_7.23
     50.00    | RE: Effective radius of drains (mm)
  15000.00    | SDRAIN: Distance bwtween two drain tubes or tiles (mm)
     10.00    | DRAIN_CO: Drainage coefficient (mm/day)
      1.00    | PC: Pump capacity (def pump cap - 1.042mm/hr or 25mm/day)
      1.00    | LATKSATF: Multiplication factor to determine conk(j1,j) from sol_k(j1,k) for HRU
